6
0 2
C         -0.024258000      0.728127000      0.000000000
H         -0.293568000      1.208053000      0.928854000
H         -0.293568000      1.208053000     -0.928854000
N         -0.019427000     -0.668556000      0.000000000
H          0.375794000     -1.083588000     -0.828686000
H          0.375794000     -1.083588000      0.828686000
